Stray ".ends" card: .ends 2x1_mux
Stray ".ends" card: .ends not_gate
Stray ".ends" card: .ends not
Stray ".ends" card: .ends lp_full_adder
Stray ".ends" card: .ends and_2_inp
Stray ".ends" card: .ends or_2_inp
Circuit: * C:\Users\charan\Documents\LTspiceXVII\examples\Educational\proj2\lp_test.asc

Limiting rise time of source v13 to 0.0002
Limiting fall time of source v13 to 0.0002
Limiting rise time of source v11 to 0.0001
Limiting fall time of source v11 to 0.0001
Limiting rise time of source v10 to 5e-005
Limiting fall time of source v10 to 5e-005
WARNING: Node X1:X5:X1:N001 is floating.
WARNING: Node X1:X1:X1:X1:X1:N001 is floating.
WARNING: Node X1:X1:X1:X2:X1:N001 is floating.
WARNING: Node X1:X1:X1:X3:X1:N001 is floating.
WARNING: Node X1:X1:X4:X1:X1:N001 is floating.
WARNING: Node X1:X1:X4:X2:X1:N001 is floating.
WARNING: Node X1:X1:X4:X3:X1:N001 is floating.
WARNING: Node X1:X1:X5:X1:N001 is floating.
WARNING: Node X1:X1:X6:NC_01 is floating.
WARNING: Node X1:X1:X6:NC_02 is floating.
WARNING: Node X1:X1:X2:X1:N001 is floating.
WARNING: Node X1:X1:X3:X1:NC_01 is floating.
WARNING: Node X1:X1:X3:X1:NC_02 is floating.
WARNING: Node X1:X1:X3:X2:NC_01 is floating.
WARNING: Node X1:X1:X3:X2:NC_02 is floating.
WARNING: Node X1:X1:X3:X3:NC_01 is floating.
WARNING: Node X1:X1:X3:X3:NC_02 is floating.
WARNING: Node X1:X1:X3:X4:X1:N001 is floating.
WARNING: Node X1:X1:X3:X5:X1:N001 is floating.
WARNING: Node X1:X2:X1:X1:X1:N001 is floating.
WARNING: Node X1:X2:X1:X2:X1:N001 is floating.
WARNING: Node X1:X2:X1:X3:X1:N001 is floating.
WARNING: Node X1:X2:X4:X1:X1:N001 is floating.
WARNING: Node X1:X2:X4:X2:X1:N001 is floating.
WARNING: Node X1:X2:X4:X3:X1:N001 is floating.
WARNING: Node X1:X2:X5:X1:N001 is floating.
WARNING: Node X1:X2:X6:NC_01 is floating.
WARNING: Node X1:X2:X6:NC_02 is floating.
WARNING: Node X1:X2:X2:X1:N001 is floating.
WARNING: Node X1:X2:X3:X1:NC_01 is floating.
WARNING: Node X1:X2:X3:X1:NC_02 is floating.
WARNING: Node X1:X2:X3:X2:NC_01 is floating.
WARNING: Node X1:X2:X3:X2:NC_02 is floating.
WARNING: Node X1:X2:X3:X3:NC_01 is floating.
WARNING: Node X1:X2:X3:X3:NC_02 is floating.
WARNING: Node X1:X2:X3:X4:X1:N001 is floating.
WARNING: Node X1:X2:X3:X5:X1:N001 is floating.
WARNING: Node X1:X3:X1:X1:X1:N001 is floating.
WARNING: Node X1:X3:X1:X2:X1:N001 is floating.
WARNING: Node X1:X3:X1:X3:X1:N001 is floating.
WARNING: Node X1:X3:X4:X1:X1:N001 is floating.
WARNING: Node X1:X3:X4:X2:X1:N001 is floating.
WARNING: Node X1:X3:X4:X3:X1:N001 is floating.
WARNING: Node X1:X3:X5:X1:N001 is floating.
WARNING: Node X1:X3:X6:NC_01 is floating.
WARNING: Node X1:X3:X6:NC_02 is floating.
WARNING: Node X1:X3:X2:X1:N001 is floating.
WARNING: Node X1:X3:X3:X1:NC_01 is floating.
WARNING: Node X1:X3:X3:X1:NC_02 is floating.
WARNING: Node X1:X3:X3:X2:NC_01 is floating.
WARNING: Node X1:X3:X3:X2:NC_02 is floating.
WARNING: Node X1:X3:X3:X3:NC_01 is floating.
WARNING: Node X1:X3:X3:X3:NC_02 is floating.
WARNING: Node X1:X3:X3:X4:X1:N001 is floating.
WARNING: Node X1:X3:X3:X5:X1:N001 is floating.
WARNING: Node X1:X4:X1:X1:X1:N001 is floating.
WARNING: Node X1:X4:X1:X2:X1:N001 is floating.
WARNING: Node X1:X4:X1:X3:X1:N001 is floating.
WARNING: Node X1:X4:X4:X1:X1:N001 is floating.
WARNING: Node X1:X4:X4:X2:X1:N001 is floating.
WARNING: Node X1:X4:X4:X3:X1:N001 is floating.
WARNING: Node X1:X4:X5:X1:N001 is floating.
WARNING: Node X1:X4:X6:NC_01 is floating.
WARNING: Node X1:X4:X6:NC_02 is floating.
WARNING: Node X1:X4:X2:X1:N001 is floating.
WARNING: Node X1:X4:X3:X1:NC_01 is floating.
WARNING: Node X1:X4:X3:X1:NC_02 is floating.
WARNING: Node X1:X4:X3:X2:NC_01 is floating.
WARNING: Node X1:X4:X3:X2:NC_02 is floating.
WARNING: Node X1:X4:X3:X3:NC_01 is floating.
WARNING: Node X1:X4:X3:X3:NC_02 is floating.
WARNING: Node X1:X4:X3:X4:X1:N001 is floating.
WARNING: Node X1:X4:X3:X5:X1:N001 is floating.

WARNING: Less than two connections to node X1:X5:X1:N001.  This node is used by M:X1:X5:X1:1.
WARNING: Less than two connections to node X1:X1:X1:X1:X1:N001.  This node is used by M:X1:X1:X1:X1:X1:1.
WARNING: Less than two connections to node X1:X1:X1:X2:X1:N001.  This node is used by M:X1:X1:X1:X2:X1:1.
WARNING: Less than two connections to node X1:X1:X1:X3:X1:N001.  This node is used by M:X1:X1:X1:X3:X1:1.
WARNING: Less than two connections to node X1:X1:X4:X1:X1:N001.  This node is used by M:X1:X1:X4:X1:X1:1.
WARNING: Less than two connections to node X1:X1:X4:X2:X1:N001.  This node is used by M:X1:X1:X4:X2:X1:1.
WARNING: Less than two connections to node X1:X1:X4:X3:X1:N001.  This node is used by M:X1:X1:X4:X3:X1:1.
WARNING: Less than two connections to node X1:X1:X5:X1:N001.  This node is used by M:X1:X1:X5:X1:1.
WARNING: Less than two connections to node X1:X1:X6:NC_01.  This node is used by M:X1:X1:X6:1.
WARNING: Less than two connections to node X1:X1:X6:NC_02.  This node is used by M:X1:X1:X6:2.
WARNING: Less than two connections to node X1:X1:X2:X1:N001.  This node is used by M:X1:X1:X2:X1:1.
WARNING: Less than two connections to node X1:X1:X3:X1:NC_01.  This node is used by M:X1:X1:X3:X1:1.
WARNING: Less than two connections to node X1:X1:X3:X1:NC_02.  This node is used by M:X1:X1:X3:X1:2.
WARNING: Less than two connections to node X1:X1:X3:X2:NC_01.  This node is used by M:X1:X1:X3:X2:1.
WARNING: Less than two connections to node X1:X1:X3:X2:NC_02.  This node is used by M:X1:X1:X3:X2:2.
WARNING: Less than two connections to node X1:X1:X3:X3:NC_01.  This node is used by M:X1:X1:X3:X3:1.
WARNING: Less than two connections to node X1:X1:X3:X3:NC_02.  This node is used by M:X1:X1:X3:X3:2.
WARNING: Less than two connections to node X1:X1:X3:X4:X1:N001.  This node is used by M:X1:X1:X3:X4:X1:1.
WARNING: Less than two connections to node X1:X1:X3:X5:X1:N001.  This node is used by M:X1:X1:X3:X5:X1:1.
WARNING: Less than two connections to node X1:X2:X1:X1:X1:N001.  This node is used by M:X1:X2:X1:X1:X1:1.
WARNING: Less than two connections to node X1:X2:X1:X2:X1:N001.  This node is used by M:X1:X2:X1:X2:X1:1.
WARNING: Less than two connections to node X1:X2:X1:X3:X1:N001.  This node is used by M:X1:X2:X1:X3:X1:1.
WARNING: Less than two connections to node X1:X2:X4:X1:X1:N001.  This node is used by M:X1:X2:X4:X1:X1:1.
WARNING: Less than two connections to node X1:X2:X4:X2:X1:N001.  This node is used by M:X1:X2:X4:X2:X1:1.
WARNING: Less than two connections to node X1:X2:X4:X3:X1:N001.  This node is used by M:X1:X2:X4:X3:X1:1.
WARNING: Less than two connections to node X1:X2:X5:X1:N001.  This node is used by M:X1:X2:X5:X1:1.
WARNING: Less than two connections to node X1:X2:X6:NC_01.  This node is used by M:X1:X2:X6:1.
WARNING: Less than two connections to node X1:X2:X6:NC_02.  This node is used by M:X1:X2:X6:2.
WARNING: Less than two connections to node X1:X2:X2:X1:N001.  This node is used by M:X1:X2:X2:X1:1.
WARNING: Less than two connections to node X1:X2:X3:X1:NC_01.  This node is used by M:X1:X2:X3:X1:1.
WARNING: Less than two connections to node X1:X2:X3:X1:NC_02.  This node is used by M:X1:X2:X3:X1:2.
WARNING: Less than two connections to node X1:X2:X3:X2:NC_01.  This node is used by M:X1:X2:X3:X2:1.
WARNING: Less than two connections to node X1:X2:X3:X2:NC_02.  This node is used by M:X1:X2:X3:X2:2.
WARNING: Less than two connections to node X1:X2:X3:X3:NC_01.  This node is used by M:X1:X2:X3:X3:1.
WARNING: Less than two connections to node X1:X2:X3:X3:NC_02.  This node is used by M:X1:X2:X3:X3:2.
WARNING: Less than two connections to node X1:X2:X3:X4:X1:N001.  This node is used by M:X1:X2:X3:X4:X1:1.
WARNING: Less than two connections to node X1:X2:X3:X5:X1:N001.  This node is used by M:X1:X2:X3:X5:X1:1.
WARNING: Less than two connections to node X1:X3:X1:X1:X1:N001.  This node is used by M:X1:X3:X1:X1:X1:1.
WARNING: Less than two connections to node X1:X3:X1:X2:X1:N001.  This node is used by M:X1:X3:X1:X2:X1:1.
WARNING: Less than two connections to node X1:X3:X1:X3:X1:N001.  This node is used by M:X1:X3:X1:X3:X1:1.
WARNING: Less than two connections to node X1:X3:X4:X1:X1:N001.  This node is used by M:X1:X3:X4:X1:X1:1.
WARNING: Less than two connections to node X1:X3:X4:X2:X1:N001.  This node is used by M:X1:X3:X4:X2:X1:1.
WARNING: Less than two connections to node X1:X3:X4:X3:X1:N001.  This node is used by M:X1:X3:X4:X3:X1:1.
WARNING: Less than two connections to node X1:X3:X5:X1:N001.  This node is used by M:X1:X3:X5:X1:1.
WARNING: Less than two connections to node X1:X3:X6:NC_01.  This node is used by M:X1:X3:X6:1.
WARNING: Less than two connections to node X1:X3:X6:NC_02.  This node is used by M:X1:X3:X6:2.
WARNING: Less than two connections to node X1:X3:X2:X1:N001.  This node is used by M:X1:X3:X2:X1:1.
WARNING: Less than two connections to node X1:X3:X3:X1:NC_01.  This node is used by M:X1:X3:X3:X1:1.
WARNING: Less than two connections to node X1:X3:X3:X1:NC_02.  This node is used by M:X1:X3:X3:X1:2.
WARNING: Less than two connections to node X1:X3:X3:X2:NC_01.  This node is used by M:X1:X3:X3:X2:1.
WARNING: Less than two connections to node X1:X3:X3:X2:NC_02.  This node is used by M:X1:X3:X3:X2:2.
WARNING: Less than two connections to node X1:X3:X3:X3:NC_01.  This node is used by M:X1:X3:X3:X3:1.
WARNING: Less than two connections to node X1:X3:X3:X3:NC_02.  This node is used by M:X1:X3:X3:X3:2.
WARNING: Less than two connections to node X1:X3:X3:X4:X1:N001.  This node is used by M:X1:X3:X3:X4:X1:1.
WARNING: Less than two connections to node X1:X3:X3:X5:X1:N001.  This node is used by M:X1:X3:X3:X5:X1:1.
WARNING: Less than two connections to node X1:X4:X1:X1:X1:N001.  This node is used by M:X1:X4:X1:X1:X1:1.
WARNING: Less than two connections to node X1:X4:X1:X2:X1:N001.  This node is used by M:X1:X4:X1:X2:X1:1.
WARNING: Less than two connections to node X1:X4:X1:X3:X1:N001.  This node is used by M:X1:X4:X1:X3:X1:1.
WARNING: Less than two connections to node X1:X4:X4:X1:X1:N001.  This node is used by M:X1:X4:X4:X1:X1:1.
WARNING: Less than two connections to node X1:X4:X4:X2:X1:N001.  This node is used by M:X1:X4:X4:X2:X1:1.
WARNING: Less than two connections to node X1:X4:X4:X3:X1:N001.  This node is used by M:X1:X4:X4:X3:X1:1.
WARNING: Less than two connections to node X1:X4:X5:X1:N001.  This node is used by M:X1:X4:X5:X1:1.
WARNING: Less than two connections to node X1:X4:X6:NC_01.  This node is used by M:X1:X4:X6:1.
WARNING: Less than two connections to node X1:X4:X6:NC_02.  This node is used by M:X1:X4:X6:2.
WARNING: Less than two connections to node X1:X4:X2:X1:N001.  This node is used by M:X1:X4:X2:X1:1.
WARNING: Less than two connections to node X1:X4:X3:X1:NC_01.  This node is used by M:X1:X4:X3:X1:1.
WARNING: Less than two connections to node X1:X4:X3:X1:NC_02.  This node is used by M:X1:X4:X3:X1:2.
WARNING: Less than two connections to node X1:X4:X3:X2:NC_01.  This node is used by M:X1:X4:X3:X2:1.
WARNING: Less than two connections to node X1:X4:X3:X2:NC_02.  This node is used by M:X1:X4:X3:X2:2.
WARNING: Less than two connections to node X1:X4:X3:X3:NC_01.  This node is used by M:X1:X4:X3:X3:1.
WARNING: Less than two connections to node X1:X4:X3:X3:NC_02.  This node is used by M:X1:X4:X3:X3:2.
WARNING: Less than two connections to node X1:X4:X3:X4:X1:N001.  This node is used by M:X1:X4:X3:X4:X1:1.
WARNING: Less than two connections to node X1:X4:X3:X5:X1:N001.  This node is used by M:X1:X4:X3:X5:X1:1.
Warning: Pd = 0 is less than W.
Warning: Ps = 0 is less than W.
Warning: Pd = 0 is less than W.
Warning: Ps = 0 is less than W.
Warning: Pd = 0 is less than W.
Warning: Ps = 0 is less than W.
Warning: Pd = 0 is less than W.
Warning: Ps = 0 is less than W.
Warning: Pd = 0 is less than W.
Warning: Ps = 0 is less than W.
Warning: Pd = 0 is less than W.
Warning: Ps = 0 is less than W.
Warning: Pd = 0 is less than W.
Warning: Ps = 0 is less than W.
Warning: Pd = 0 is less than W.
Warning: Ps = 0 is less than W.
Warning: Pd = 0 is less than W.
Warning: Ps = 0 is less than W.
Warning: Pd = 0 is less than W.
Warning: Ps = 0 is less than W.
Warning: Pd = 0 is less than W.
Warning: Ps = 0 is less than W.
Warning: Pd = 0 is less than W.
Warning: Ps = 0 is less than W.
Warning: Pd = 0 is less than W.
Warning: Ps = 0 is less than W.
Warning: Pd = 0 is less than W.
Warning: Ps = 0 is less than W.
Warning: Pd = 0 is less than W.
Warning: Ps = 0 is less than W.
Warning: Pd = 0 is less than W.
Warning: Ps = 0 is less than W.
Warning: Pd = 0 is less than W.
Warning: Ps = 0 is less than W.
Warning: Pd = 0 is less than W.
Warning: Ps = 0 is less than W.
Warning: Pd = 0 is less than W.
Warning: Ps = 0 is less than W.
Warning: Pd = 0 is less than W.
Warning: Ps = 0 is less than W.
Warning: Pd = 0 is less than W.
Warning: Ps = 0 is less than W.
Warning: Pd = 0 is less than W.
Warning: Ps = 0 is less than W.
Warning: Pd = 0 is less than W.
Warning: Ps = 0 is less than W.
Warning: Pd = 0 is less than W.
Warning: Ps = 0 is less than W.
Warning: Pd = 0 is less than W.
Warning: Ps = 0 is less than W.
Warning: Pd = 0 is less than W.
Warning: Ps = 0 is less than W.
Warning: Pd = 0 is less than W.
Warning: Ps = 0 is less than W.
Warning: Pd = 0 is less than W.
Warning: Ps = 0 is less than W.
Warning: Pd = 0 is less than W.
Warning: Ps = 0 is less than W.
Warning: Pd = 0 is less than W.
Warning: Ps = 0 is less than W.
Warning: Pd = 0 is less than W.
Warning: Ps = 0 is less than W.
Warning: Pd = 0 is less than W.
Warning: Ps = 0 is less than W.
Warning: Pd = 0 is less than W.
Warning: Ps = 0 is less than W.
Warning: Pd = 0 is less than W.
Warning: Ps = 0 is less than W.
Warning: Pd = 0 is less than W.
Warning: Ps = 0 is less than W.
Warning: Pd = 0 is less than W.
Warning: Ps = 0 is less than W.
Warning: Pd = 0 is less than W.
Warning: Ps = 0 is less than W.
Warning: Pd = 0 is less than W.
Warning: Ps = 0 is less than W.
Warning: Pd = 0 is less than W.
Warning: Ps = 0 is less than W.
Warning: Pd = 0 is less than W.
Warning: Ps = 0 is less than W.
Warning: Pd = 0 is less than W.
Warning: Ps = 0 is less than W.
Warning: Pd = 0 is less than W.
Warning: Ps = 0 is less than W.
Warning: Pd = 0 is less than W.
Warning: Ps = 0 is less than W.
Warning: Pd = 0 is less than W.
Warning: Ps = 0 is less than W.
Warning: Pd = 0 is less than W.
Warning: Ps = 0 is less than W.
Warning: Pd = 0 is less than W.
Warning: Ps = 0 is less than W.
Warning: Pd = 0 is less than W.
Warning: Ps = 0 is less than W.
Warning: Pd = 0 is less than W.
Warning: Ps = 0 is less than W.
Warning: Pd = 0 is less than W.
Warning: Ps = 0 is less than W.
Warning: Pd = 0 is less than W.
Warning: Ps = 0 is less than W.
Warning: Pd = 0 is less than W.
Warning: Ps = 0 is less than W.
Warning: Pd = 0 is less than W.
Warning: Ps = 0 is less than W.
Warning: Pd = 0 is less than W.
Warning: Ps = 0 is less than W.
Warning: Pd = 0 is less than W.
Warning: Ps = 0 is less than W.
Warning: Pd = 0 is less than W.
Warning: Ps = 0 is less than W.
Warning: Pd = 0 is less than W.
Warning: Ps = 0 is less than W.
Warning: Pd = 0 is less than W.
Warning: Ps = 0 is less than W.
Warning: Pd = 0 is less than W.
Warning: Ps = 0 is less than W.
Warning: Pd = 0 is less than W.
Warning: Ps = 0 is less than W.
Warning: Pd = 0 is less than W.
Warning: Ps = 0 is less than W.
Warning: Pd = 0 is less than W.
Warning: Ps = 0 is less than W.
Warning: Pd = 0 is less than W.
Warning: Ps = 0 is less than W.
Warning: Pd = 0 is less than W.
Warning: Ps = 0 is less than W.
Warning: Pd = 0 is less than W.
Warning: Ps = 0 is less than W.
Warning: Pd = 0 is less than W.
Warning: Ps = 0 is less than W.
Warning: Pd = 0 is less than W.
Warning: Ps = 0 is less than W.
Warning: Pd = 0 is less than W.
Warning: Ps = 0 is less than W.
Warning: Pd = 0 is less than W.
Warning: Ps = 0 is less than W.
Warning: Pd = 0 is less than W.
Warning: Ps = 0 is less than W.
Warning: Pd = 0 is less than W.
Warning: Ps = 0 is less than W.
Warning: Pd = 0 is less than W.
Warning: Ps = 0 is less than W.
Warning: Pd = 0 is less than W.
Warning: Ps = 0 is less than W.
Warning: Pd = 0 is less than W.
Warning: Ps = 0 is less than W.
Warning: Pd = 0 is less than W.
Warning: Ps = 0 is less than W.
Warning: Pd = 0 is less than W.
Warning: Ps = 0 is less than W.
Warning: Pd = 0 is less than W.
Warning: Ps = 0 is less than W.
Warning: Pd = 0 is less than W.
Warning: Ps = 0 is less than W.
Warning: Pd = 0 is less than W.
Warning: Ps = 0 is less than W.
Warning: Pd = 0 is less than W.
Warning: Ps = 0 is less than W.
Warning: Pd = 0 is less than W.
Warning: Ps = 0 is less than W.
Warning: Pd = 0 is less than W.
Warning: Ps = 0 is less than W.
Warning: Pd = 0 is less than W.
Warning: Ps = 0 is less than W.
Warning: Pd = 0 is less than W.
Warning: Ps = 0 is less than W.
Warning: Pd = 0 is less than W.
Warning: Ps = 0 is less than W.
Warning: Pd = 0 is less than W.
Warning: Ps = 0 is less than W.
Warning: Pd = 0 is less than W.
Warning: Ps = 0 is less than W.
Warning: Pd = 0 is less than W.
Warning: Ps = 0 is less than W.
Warning: Pd = 0 is less than W.
Warning: Ps = 0 is less than W.
Warning: Pd = 0 is less than W.
Warning: Ps = 0 is less than W.
Warning: Pd = 0 is less than W.
Warning: Ps = 0 is less than W.
Warning: Pd = 0 is less than W.
Warning: Ps = 0 is less than W.
Warning: Pd = 0 is less than W.
Warning: Ps = 0 is less than W.
Warning: Pd = 0 is less than W.
Warning: Ps = 0 is less than W.
Warning: Pd = 0 is less than W.
Warning: Ps = 0 is less than W.
Warning: Pd = 0 is less than W.
Warning: Ps = 0 is less than W.
Warning: Pd = 0 is less than W.
Warning: Ps = 0 is less than W.
Warning: Pd = 0 is less than W.
Warning: Ps = 0 is less than W.
Warning: Pd = 0 is less than W.
Warning: Ps = 0 is less than W.
Warning: Pd = 0 is less than W.
Warning: Ps = 0 is less than W.
Warning: Pd = 0 is less than W.
Warning: Ps = 0 is less than W.
Warning: Pd = 0 is less than W.
Warning: Ps = 0 is less than W.
Warning: Pd = 0 is less than W.
Warning: Ps = 0 is less than W.
Warning: Pd = 0 is less than W.
Warning: Ps = 0 is less than W.
Warning: Pd = 0 is less than W.
Warning: Ps = 0 is less than W.
Warning: Pd = 0 is less than W.
Warning: Ps = 0 is less than W.
Warning: Pd = 0 is less than W.
Warning: Ps = 0 is less than W.
Warning: Pd = 0 is less than W.
Warning: Ps = 0 is less than W.
Warning: Pd = 0 is less than W.
Warning: Ps = 0 is less than W.
Warning: Pd = 0 is less than W.
Warning: Ps = 0 is less than W.
Warning: Pd = 0 is less than W.
Warning: Ps = 0 is less than W.
Warning: Pd = 0 is less than W.
Warning: Ps = 0 is less than W.
Warning: Pd = 0 is less than W.
Warning: Ps = 0 is less than W.
Warning: Pd = 0 is less than W.
Warning: Ps = 0 is less than W.
Warning: Pd = 0 is less than W.
Warning: Ps = 0 is less than W.
Warning: Pd = 0 is less than W.
Warning: Ps = 0 is less than W.
Warning: Pd = 0 is less than W.
Warning: Ps = 0 is less than W.
Warning: Pd = 0 is less than W.
Warning: Ps = 0 is less than W.
Warning: Pd = 0 is less than W.
Warning: Ps = 0 is less than W.
Warning: Pd = 0 is less than W.
Warning: Ps = 0 is less than W.
Warning: Pd = 0 is less than W.
Warning: Ps = 0 is less than W.
Warning: Pd = 0 is less than W.
Warning: Ps = 0 is less than W.
Warning: Pd = 0 is less than W.
Warning: Ps = 0 is less than W.
Warning: Pd = 0 is less than W.
Warning: Ps = 0 is less than W.
Warning: Pd = 0 is less than W.
Warning: Ps = 0 is less than W.
Warning: Pd = 0 is less than W.
Warning: Ps = 0 is less than W.
Warning: Pd = 0 is less than W.
Warning: Ps = 0 is less than W.
Warning: Pd = 0 is less than W.
Warning: Ps = 0 is less than W.
Warning: Pd = 0 is less than W.
Warning: Ps = 0 is less than W.
Warning: Pd = 0 is less than W.
Warning: Ps = 0 is less than W.
Warning: Pd = 0 is less than W.
Warning: Ps = 0 is less than W.
Warning: Pd = 0 is less than W.
Warning: Ps = 0 is less than W.
Warning: Pd = 0 is less than W.
Warning: Ps = 0 is less than W.
Warning: Pd = 0 is less than W.
Warning: Ps = 0 is less than W.
Warning: Pd = 0 is less than W.
Warning: Ps = 0 is less than W.
Warning: Pd = 0 is less than W.
Warning: Ps = 0 is less than W.
Warning: Pd = 0 is less than W.
Warning: Ps = 0 is less than W.
Warning: Pd = 0 is less than W.
Warning: Ps = 0 is less than W.
Warning: Pd = 0 is less than W.
Warning: Ps = 0 is less than W.
Warning: Pd = 0 is less than W.
Warning: Ps = 0 is less than W.
Warning: Pd = 0 is less than W.
Warning: Ps = 0 is less than W.
Warning: Pd = 0 is less than W.
Warning: Ps = 0 is less than W.
Warning: Pd = 0 is less than W.
Warning: Ps = 0 is less than W.
Warning: Pd = 0 is less than W.
Warning: Ps = 0 is less than W.
Warning: Pd = 0 is less than W.
Warning: Ps = 0 is less than W.
Warning: Pd = 0 is less than W.
Warning: Ps = 0 is less than W.
Warning: Pd = 0 is less than W.
Warning: Ps = 0 is less than W.
Warning: Pd = 0 is less than W.
Warning: Ps = 0 is less than W.
Warning: Pd = 0 is less than W.
Warning: Ps = 0 is less than W.
Warning: Pd = 0 is less than W.
Warning: Ps = 0 is less than W.
Warning: Pd = 0 is less than W.
Warning: Ps = 0 is less than W.
Warning: Pd = 0 is less than W.
Warning: Ps = 0 is less than W.
Warning: Pd = 0 is less than W.
Warning: Ps = 0 is less than W.
Warning: Pd = 0 is less than W.
Warning: Ps = 0 is less than W.
Warning: Pd = 0 is less than W.
Warning: Ps = 0 is less than W.
Warning: Pd = 0 is less than W.
Warning: Ps = 0 is less than W.
Warning: Pd = 0 is less than W.
Warning: Ps = 0 is less than W.
Warning: Pd = 0 is less than W.
Warning: Ps = 0 is less than W.
Warning: Pd = 0 is less than W.
Warning: Ps = 0 is less than W.
Warning: Pd = 0 is less than W.
Warning: Ps = 0 is less than W.
Warning: Pd = 0 is less than W.
Warning: Ps = 0 is less than W.
Warning: Pd = 0 is less than W.
Warning: Ps = 0 is less than W.
Warning: Pd = 0 is less than W.
Warning: Ps = 0 is less than W.
Warning: Pd = 0 is less than W.
Warning: Ps = 0 is less than W.
Warning: Pd = 0 is less than W.
Warning: Ps = 0 is less than W.
Warning: Pd = 0 is less than W.
Warning: Ps = 0 is less than W.
Warning: Pd = 0 is less than W.
Warning: Ps = 0 is less than W.
Warning: Pd = 0 is less than W.
Warning: Ps = 0 is less than W.
Warning: Pd = 0 is less than W.
Warning: Ps = 0 is less than W.
Warning: Pd = 0 is less than W.
Warning: Ps = 0 is less than W.
Warning: Pd = 0 is less than W.
Warning: Ps = 0 is less than W.
Warning: Pd = 0 is less than W.
Warning: Ps = 0 is less than W.
Warning: Pd = 0 is less than W.
Warning: Ps = 0 is less than W.
Warning: Pd = 0 is less than W.
Warning: Ps = 0 is less than W.
Warning: Pd = 0 is less than W.
Warning: Ps = 0 is less than W.
Warning: Pd = 0 is less than W.
Warning: Ps = 0 is less than W.
Warning: Pd = 0 is less than W.
Warning: Ps = 0 is less than W.
Warning: Pd = 0 is less than W.
Warning: Ps = 0 is less than W.
Warning: Pd = 0 is less than W.
Warning: Ps = 0 is less than W.
Warning: Pd = 0 is less than W.
Warning: Ps = 0 is less than W.
Warning: Pd = 0 is less than W.
Warning: Ps = 0 is less than W.
Warning: Pd = 0 is less than W.
Warning: Ps = 0 is less than W.
Warning: Pd = 0 is less than W.
Warning: Ps = 0 is less than W.
Warning: Pd = 0 is less than W.
Warning: Ps = 0 is less than W.
Warning: Pd = 0 is less than W.
Warning: Ps = 0 is less than W.
Warning: Pd = 0 is less than W.
Warning: Ps = 0 is less than W.
Warning: Pd = 0 is less than W.
Warning: Ps = 0 is less than W.
Warning: Pd = 0 is less than W.
Warning: Ps = 0 is less than W.
Warning: Pd = 0 is less than W.
Warning: Ps = 0 is less than W.
Warning: Pd = 0 is less than W.
Warning: Ps = 0 is less than W.
Warning: Pd = 0 is less than W.
Warning: Ps = 0 is less than W.
Warning: Pd = 0 is less than W.
Warning: Ps = 0 is less than W.
Warning: Pd = 0 is less than W.
Warning: Ps = 0 is less than W.
Warning: Pd = 0 is less than W.
Warning: Ps = 0 is less than W.
Warning: Pd = 0 is less than W.
Warning: Ps = 0 is less than W.
Warning: Pd = 0 is less than W.
Warning: Ps = 0 is less than W.
Warning: Pd = 0 is less than W.
Warning: Ps = 0 is less than W.
Warning: Pd = 0 is less than W.
Warning: Ps = 0 is less than W.
Warning: Pd = 0 is less than W.
Warning: Ps = 0 is less than W.
Warning: Pd = 0 is less than W.
Warning: Ps = 0 is less than W.
Warning: Pd = 0 is less than W.
Warning: Ps = 0 is less than W.
Warning: Pd = 0 is less than W.
Warning: Ps = 0 is less than W.
Warning: Pd = 0 is less than W.
Warning: Ps = 0 is less than W.
Warning: Pd = 0 is less than W.
Warning: Ps = 0 is less than W.
Warning: Pd = 0 is less than W.
Warning: Ps = 0 is less than W.
Early termination of direct N-R iteration.
Direct Newton iteration failed to find .op point.  (Use ".option noopiter" to skip.)
Starting Gmin stepping
Gmin = 10
Gmin = 1.07374
Gmin = 0.115292
Gmin = 0.0123794
Gmin = 0.00132923
Gmin = 0.000142725
Gmin = 1.5325e-005
Gmin = 1.6455e-006
Gmin = 1.76685e-007
Gmin = 1.89714e-008
Gmin = 2.03704e-009
Gmin = 2.18725e-010
Gmin = 2.34854e-011
Gmin = 2.52173e-012
Gmin = 2.70769e-013
Gmin = 0
Gmin stepping succeeded in finding the operating point.


Date: Thu Apr 16 13:54:15 2020
Total elapsed time: 3.621 seconds.

tnom = 27
temp = 27
method = modified trap
totiter = 9844
traniter = 9409
tranpoints = 2568
accept = 2144
rejected = 424
matrix size = 209
fillins = 218
solver = Normal
Thread vector: 448.8/235.6[4] 86.5/49.1[4] 21.8/16.3[4] 1.9/4.6[1]  2592/500
Matrix Compiler1: 43.98 KB object code size  25.3/11.1/[4.9]
Matrix Compiler2: 35.97 KB object code size  11.6/10.9/[2.1]

